# generated using pymatgen
data_CsCu2Br3
_symmetry_space_group_name_H-M   'P 1'
_cell_length_a   8.21428505
_cell_length_b   8.21428505
_cell_length_c   5.62208108
_cell_angle_alpha   90.00000000
_cell_angle_beta   90.00000000
_cell_angle_gamma   104.80172417
_symmetry_Int_Tables_number   1
_chemical_formula_structural   CsCu2Br3
_chemical_formula_sum   'Cs2 Cu4 Br6'
_cell_volume   366.75862713
_cell_formula_units_Z   2
loop_
 _symmetry_equiv_pos_site_id
 _symmetry_equiv_pos_as_xyz
  1  'x, y, z'
loop_
 _atom_site_type_symbol
 _atom_site_label
 _atom_site_symmetry_multiplicity
 _atom_site_fract_x
 _atom_site_fract_y
 _atom_site_fract_z
 _atom_site_occupancy
  Cs  Cs1  1  0.678256  0.321744  0.750000  1
  Cs  Cs2  1  0.321744  0.678256  0.250000  1
  Cu  Cu3  1  0.151765  0.151765  0.000000  1
  Cu  Cu4  1  0.848235  0.848235  0.500000  1
  Cu  Cu5  1  0.848235  0.848235  0.000000  1
  Cu  Cu6  1  0.151765  0.151765  0.500000  1
  Br  Br7  1  0.115471  0.884529  0.750000  1
  Br  Br8  1  0.884529  0.115471  0.250000  1
  Br  Br9  1  0.163013  0.398829  0.750000  1
  Br  Br10  1  0.836987  0.601171  0.250000  1
  Br  Br11  1  0.398829  0.163013  0.250000  1
  Br  Br12  1  0.601171  0.836987  0.750000  1
