# generated using pymatgen
data_CsCu2Cl3
_symmetry_space_group_name_H-M   'P 1'
_cell_length_a   7.92486228
_cell_length_b   7.92486228
_cell_length_c   5.34507717
_cell_angle_alpha   90.00000000
_cell_angle_beta   90.00000000
_cell_angle_gamma   104.19660664
_symmetry_Int_Tables_number   1
_chemical_formula_structural   CsCu2Cl3
_chemical_formula_sum   'Cs2 Cu4 Cl6'
_cell_volume   325.437253636
_cell_formula_units_Z   2
loop_
 _symmetry_equiv_pos_site_id
 _symmetry_equiv_pos_as_xyz
  1  'x, y, z'
loop_
 _atom_site_type_symbol
 _atom_site_label
 _atom_site_symmetry_multiplicity
 _atom_site_fract_x
 _atom_site_fract_y
 _atom_site_fract_z
 _atom_site_occupancy
  Cs  Cs1  1  0.687591  0.312409  0.250000  1
  Cs  Cs2  1  0.312409  0.687591  0.750000  1
  Cu  Cu3  1  0.166306  0.166306  0.000000  1
  Cu  Cu4  1  0.833694  0.833694  0.000000  1
  Cu  Cu5  1  0.833694  0.833694  0.500000  1
  Cu  Cu6  1  0.166306  0.166306  0.500000  1
  Cl  Cl7  1  0.107430  0.892570  0.250000  1
  Cl  Cl8  1  0.892570  0.107430  0.750000  1
  Cl  Cl9  1  0.160706  0.398711  0.250000  1
  Cl  Cl10  1  0.839294  0.601289  0.750000  1
  Cl  Cl11  1  0.601289  0.839294  0.250000  1
  Cl  Cl12  1  0.398711  0.160706  0.750000  1
