# generated using pymatgen
data_CuBi
_symmetry_space_group_name_H-M   'P 1'
_cell_length_a   4.43193421
_cell_length_b   4.43193421
_cell_length_c   5.13717041
_cell_angle_alpha   90.00000000
_cell_angle_beta   90.00000000
_cell_angle_gamma   120.00000000
_symmetry_Int_Tables_number   1
_chemical_formula_structural   CuBi
_chemical_formula_sum   'Cu2 Bi2'
_cell_volume   87.3858699446
_cell_formula_units_Z   2
loop_
 _symmetry_equiv_pos_site_id
 _symmetry_equiv_pos_as_xyz
  1  'x, y, z'
loop_
 _atom_site_type_symbol
 _atom_site_label
 _atom_site_symmetry_multiplicity
 _atom_site_fract_x
 _atom_site_fract_y
 _atom_site_fract_z
 _atom_site_occupancy
  Cu  Cu1  1  0.000000  0.000000  0.000000  1
  Cu  Cu2  1  0.000000  0.000000  0.500000  1
  Bi  Bi3  1  0.666667  0.333333  0.250000  1
  Bi  Bi4  1  0.333333  0.666667  0.750000  1
