# generated using pymatgen
data_Au3Br
_symmetry_space_group_name_H-M   'P 1'
_cell_length_a   5.37990188
_cell_length_b   5.37990188
_cell_length_c   5.37990188
_cell_angle_alpha   134.01108134
_cell_angle_beta   134.01108134
_cell_angle_gamma   67.07070077
_symmetry_Int_Tables_number   1
_chemical_formula_structural   Au3Br
_chemical_formula_sum   'Au3 Br1'
_cell_volume   79.2264674352
_cell_formula_units_Z   1
loop_
 _symmetry_equiv_pos_site_id
 _symmetry_equiv_pos_as_xyz
  1  'x, y, z'
loop_
 _atom_site_type_symbol
 _atom_site_label
 _atom_site_symmetry_multiplicity
 _atom_site_fract_x
 _atom_site_fract_y
 _atom_site_fract_z
 _atom_site_occupancy
  Au  Au1  1  0.250000  0.750000  0.500000  1
  Au  Au2  1  0.750000  0.250000  0.500000  1
  Au  Au3  1  0.500000  0.500000  0.000000  1
  Br  Br4  1  0.000000  0.000000  0.000000  1
