# generated using pymatgen
data_Cs3Sb2I9
_symmetry_space_group_name_H-M   'P 1'
_cell_length_a   8.57241174
_cell_length_b   8.57241174
_cell_length_c   21.73089254
_cell_angle_alpha   90.00000000
_cell_angle_beta   90.00000000
_cell_angle_gamma   120.00000000
_symmetry_Int_Tables_number   1
_chemical_formula_structural   Cs3Sb2I9
_chemical_formula_sum   'Cs6 Sb4 I18'
_cell_volume   1382.97471754
_cell_formula_units_Z   2
loop_
 _symmetry_equiv_pos_site_id
 _symmetry_equiv_pos_as_xyz
  1  'x, y, z'
loop_
 _atom_site_type_symbol
 _atom_site_label
 _atom_site_symmetry_multiplicity
 _atom_site_fract_x
 _atom_site_fract_y
 _atom_site_fract_z
 _atom_site_occupancy
  Cs  Cs1  1  0.666667  0.333333  0.077161  1
  Cs  Cs2  1  0.333333  0.666667  0.577161  1
  Cs  Cs3  1  0.333333  0.666667  0.922839  1
  Cs  Cs4  1  0.666667  0.333333  0.422839  1
  Cs  Cs5  1  0.000000  0.000000  0.250000  1
  Cs  Cs6  1  0.000000  0.000000  0.750000  1
  Sb  Sb7  1  0.666667  0.333333  0.843070  1
  Sb  Sb8  1  0.666667  0.333333  0.656930  1
  Sb  Sb9  1  0.333333  0.666667  0.156930  1
  Sb  Sb10  1  0.333333  0.666667  0.343070  1
  I  I11  1  0.167838  0.832162  0.083742  1
  I  I12  1  0.832162  0.664325  0.916258  1
  I  I13  1  0.832162  0.167838  0.916258  1
  I  I14  1  0.832162  0.664325  0.583742  1
  I  I15  1  0.335675  0.167838  0.916258  1
  I  I16  1  0.664325  0.832162  0.416258  1
  I  I17  1  0.167838  0.335675  0.416258  1
  I  I18  1  0.167838  0.832162  0.416258  1
  I  I19  1  0.501501  0.003002  0.250000  1
  I  I20  1  0.498499  0.501501  0.750000  1
  I  I21  1  0.003002  0.501501  0.750000  1
  I  I22  1  0.996998  0.498499  0.250000  1
  I  I23  1  0.501501  0.498499  0.250000  1
  I  I24  1  0.498499  0.996998  0.750000  1
  I  I25  1  0.335675  0.167838  0.583742  1
  I  I26  1  0.832162  0.167838  0.583742  1
  I  I27  1  0.167838  0.335675  0.083742  1
  I  I28  1  0.664325  0.832162  0.083742  1
