# generated using pymatgen
data_Sb
_symmetry_space_group_name_H-M   'P 1'
_cell_length_a   4.38531453
_cell_length_b   4.38531453
_cell_length_c   11.44917334
_cell_angle_alpha   90.00000000
_cell_angle_beta   90.00000000
_cell_angle_gamma   120.00000000
_symmetry_Int_Tables_number   1
_chemical_formula_structural   Sb
_chemical_formula_sum   Sb6
_cell_volume   190.680489232
_cell_formula_units_Z   6
loop_
 _symmetry_equiv_pos_site_id
 _symmetry_equiv_pos_as_xyz
  1  'x, y, z'
loop_
 _atom_site_type_symbol
 _atom_site_label
 _atom_site_symmetry_multiplicity
 _atom_site_fract_x
 _atom_site_fract_y
 _atom_site_fract_z
 _atom_site_occupancy
  Sb  Sb1  1  0.333333  0.666667  0.933501  1
  Sb  Sb2  1  0.666667  0.333333  0.066499  1
  Sb  Sb3  1  0.000000  0.000000  0.266834  1
  Sb  Sb4  1  0.333333  0.666667  0.399832  1
  Sb  Sb5  1  0.666667  0.333333  0.600168  1
  Sb  Sb6  1  0.000000  0.000000  0.733166  1
