# generated using pymatgen
data_SbCl5
_symmetry_space_group_name_H-M   'P 1'
_cell_length_a   8.01024657
_cell_length_b   8.01024657
_cell_length_c   8.43475887
_cell_angle_alpha   90.00000000
_cell_angle_beta   90.00000000
_cell_angle_gamma   120.00000000
_symmetry_Int_Tables_number   1
_chemical_formula_structural   SbCl5
_chemical_formula_sum   'Sb2 Cl10'
_cell_volume   468.700128432
_cell_formula_units_Z   2
loop_
 _symmetry_equiv_pos_site_id
 _symmetry_equiv_pos_as_xyz
  1  'x, y, z'
loop_
 _atom_site_type_symbol
 _atom_site_label
 _atom_site_symmetry_multiplicity
 _atom_site_fract_x
 _atom_site_fract_y
 _atom_site_fract_z
 _atom_site_occupancy
  Sb  Sb1  1  0.666667  0.333333  0.250000  1
  Sb  Sb2  1  0.333333  0.666667  0.750000  1
  Cl  Cl3  1  0.330426  0.165213  0.250000  1
  Cl  Cl4  1  0.165213  0.834787  0.750000  1
  Cl  Cl5  1  0.333333  0.666667  0.031790  1
  Cl  Cl6  1  0.666667  0.333333  0.531790  1
  Cl  Cl7  1  0.666667  0.333333  0.968210  1
  Cl  Cl8  1  0.333333  0.666667  0.468210  1
  Cl  Cl9  1  0.669574  0.834787  0.750000  1
  Cl  Cl10  1  0.834787  0.165213  0.250000  1
  Cl  Cl11  1  0.834787  0.669574  0.250000  1
  Cl  Cl12  1  0.165213  0.330426  0.750000  1
