# generated using pymatgen
data_Bi9I2
_symmetry_space_group_name_H-M   'P 1'
_cell_length_a   13.52802041
_cell_length_b   4.48436917
_cell_length_c   15.44790018
_cell_angle_alpha   90.00000000
_cell_angle_beta   114.97643260
_cell_angle_gamma   90.00000000
_symmetry_Int_Tables_number   1
_chemical_formula_structural   Bi9I2
_chemical_formula_sum   'Bi18 I4'
_cell_volume   849.501263811
_cell_formula_units_Z   2
loop_
 _symmetry_equiv_pos_site_id
 _symmetry_equiv_pos_as_xyz
  1  'x, y, z'
loop_
 _atom_site_type_symbol
 _atom_site_label
 _atom_site_symmetry_multiplicity
 _atom_site_fract_x
 _atom_site_fract_y
 _atom_site_fract_z
 _atom_site_occupancy
  Bi  Bi1  1  0.503989  0.250000  0.333253  1
  Bi  Bi2  1  0.496011  0.750000  0.666747  1
  Bi  Bi3  1  0.614557  0.250000  0.810308  1
  Bi  Bi4  1  0.385443  0.750000  0.189692  1
  Bi  Bi5  1  0.805947  0.250000  0.750929  1
  Bi  Bi6  1  0.194053  0.750000  0.249071  1
  Bi  Bi7  1  0.073740  0.250000  0.106818  1
  Bi  Bi8  1  0.926260  0.750000  0.893182  1
  Bi  Bi9  1  0.876808  0.250000  0.161276  1
  Bi  Bi10  1  0.123192  0.750000  0.838724  1
  Bi  Bi11  1  0.240566  0.250000  0.981726  1
  Bi  Bi12  1  0.759434  0.750000  0.018274  1
  Bi  Bi13  1  0.439140  0.250000  0.929423  1
  Bi  Bi14  1  0.560860  0.750000  0.070577  1
  Bi  Bi15  1  0.301275  0.750000  0.719617  1
  Bi  Bi16  1  0.698725  0.250000  0.280383  1
  Bi  Bi17  1  0.816892  0.750000  0.427225  1
  Bi  Bi18  1  0.183108  0.250000  0.572775  1
  I  I19  1  0.663213  0.750000  0.533788  1
  I  I20  1  0.336787  0.250000  0.466212  1
  I  I21  1  0.013663  0.750000  0.372913  1
  I  I22  1  0.986337  0.250000  0.627087  1
