# generated using pymatgen
data_Br
_symmetry_space_group_name_H-M   'P 1'
_cell_length_a   4.54580083
_cell_length_b   4.54580083
_cell_length_c   8.65944894
_cell_angle_alpha   90.00000000
_cell_angle_beta   90.00000000
_cell_angle_gamma   122.96336187
_symmetry_Int_Tables_number   1
_chemical_formula_structural   Br
_chemical_formula_sum   Br4
_cell_volume   150.13525553
_cell_formula_units_Z   4
loop_
 _symmetry_equiv_pos_site_id
 _symmetry_equiv_pos_as_xyz
  1  'x, y, z'
loop_
 _atom_site_type_symbol
 _atom_site_label
 _atom_site_symmetry_multiplicity
 _atom_site_fract_x
 _atom_site_fract_y
 _atom_site_fract_z
 _atom_site_occupancy
  Br  Br1  1  0.858772  0.858772  0.118374  1
  Br  Br2  1  0.641228  0.641228  0.618374  1
  Br  Br3  1  0.358772  0.358772  0.381626  1
  Br  Br4  1  0.141228  0.141228  0.881626  1
