# generated using pymatgen
data_Cl2
_symmetry_space_group_name_H-M   'P 1'
_cell_length_a   11.76580870
_cell_length_b   11.76580870
_cell_length_c   8.20352533
_cell_angle_alpha   90.00000000
_cell_angle_beta   90.00000000
_cell_angle_gamma   90.00000000
_symmetry_Int_Tables_number   1
_chemical_formula_structural   Cl2
_chemical_formula_sum   Cl16
_cell_volume   1135.64891222
_cell_formula_units_Z   8
loop_
 _symmetry_equiv_pos_site_id
 _symmetry_equiv_pos_as_xyz
  1  'x, y, z'
loop_
 _atom_site_type_symbol
 _atom_site_label
 _atom_site_symmetry_multiplicity
 _atom_site_fract_x
 _atom_site_fract_y
 _atom_site_fract_z
 _atom_site_occupancy
  Cl  Cl1  1  0.844483  0.106098  0.639232  1
  Cl  Cl2  1  0.344483  0.393902  0.360768  1
  Cl  Cl3  1  0.606098  0.344483  0.639232  1
  Cl  Cl4  1  0.393902  0.655517  0.639232  1
  Cl  Cl5  1  0.344483  0.606098  0.860768  1
  Cl  Cl6  1  0.844483  0.893902  0.139232  1
  Cl  Cl7  1  0.655517  0.393902  0.860768  1
  Cl  Cl8  1  0.155517  0.106098  0.139232  1
  Cl  Cl9  1  0.393902  0.344483  0.139232  1
  Cl  Cl10  1  0.155517  0.893902  0.639232  1
  Cl  Cl11  1  0.893902  0.155517  0.860768  1
  Cl  Cl12  1  0.893902  0.844483  0.360768  1
  Cl  Cl13  1  0.106098  0.155517  0.360768  1
  Cl  Cl14  1  0.106098  0.844483  0.860768  1
  Cl  Cl15  1  0.655517  0.606098  0.360768  1
  Cl  Cl16  1  0.606098  0.655517  0.139232  1
