# generated using pymatgen
data_Bi9AuBr9
_symmetry_space_group_name_H-M   'P 1'
_cell_length_a   10.87644947
_cell_length_b   15.59380680
_cell_length_c   15.08766143
_cell_angle_alpha   90.00000000
_cell_angle_beta   93.00815583
_cell_angle_gamma   90.00000000
_symmetry_Int_Tables_number   1
_chemical_formula_structural   Bi9AuBr9
_chemical_formula_sum   'Bi36 Au4 Br36'
_cell_volume   2555.42057712
_cell_formula_units_Z   4
loop_
 _symmetry_equiv_pos_site_id
 _symmetry_equiv_pos_as_xyz
  1  'x, y, z'
loop_
 _atom_site_type_symbol
 _atom_site_label
 _atom_site_symmetry_multiplicity
 _atom_site_fract_x
 _atom_site_fract_y
 _atom_site_fract_z
 _atom_site_occupancy
  Bi  Bi1  1  0.414599  0.314976  0.935179  1
  Bi  Bi2  1  0.772619  0.549214  0.973354  1
  Bi  Bi3  1  0.775690  0.994404  0.775671  1
  Bi  Bi4  1  0.447228  0.136064  0.645828  1
  Bi  Bi5  1  0.775690  0.505596  0.275671  1
  Bi  Bi6  1  0.053093  0.856701  0.187932  1
  Bi  Bi7  1  0.309901  0.852155  0.476047  1
  Bi  Bi8  1  0.381237  0.929285  0.670952  1
  Bi  Bi9  1  0.967466  0.641879  0.307466  1
  Bi  Bi10  1  0.227381  0.049214  0.526646  1
  Bi  Bi11  1  0.946907  0.356701  0.312068  1
  Bi  Bi12  1  0.690099  0.147845  0.523953  1
  Bi  Bi13  1  0.381237  0.570715  0.170952  1
  Bi  Bi14  1  0.552772  0.863936  0.354172  1
  Bi  Bi15  1  0.618763  0.070715  0.329048  1
  Bi  Bi16  1  0.967466  0.858121  0.807466  1
  Bi  Bi17  1  0.309901  0.647845  0.976047  1
  Bi  Bi18  1  0.585401  0.814976  0.564821  1
  Bi  Bi19  1  0.772619  0.950786  0.473354  1
  Bi  Bi20  1  0.032534  0.141879  0.192534  1
  Bi  Bi21  1  0.224310  0.494404  0.724329  1
  Bi  Bi22  1  0.946907  0.143299  0.812068  1
  Bi  Bi23  1  0.668523  0.986813  0.955764  1
  Bi  Bi24  1  0.032534  0.358121  0.692534  1
  Bi  Bi25  1  0.618763  0.429285  0.829048  1
  Bi  Bi26  1  0.224310  0.005596  0.224329  1
  Bi  Bi27  1  0.227381  0.450786  0.026646  1
  Bi  Bi28  1  0.053093  0.643299  0.687932  1
  Bi  Bi29  1  0.585401  0.685024  0.064821  1
  Bi  Bi30  1  0.668523  0.513187  0.455764  1
  Bi  Bi31  1  0.331477  0.013187  0.044236  1
  Bi  Bi32  1  0.690099  0.352155  0.023953  1
  Bi  Bi33  1  0.552772  0.636064  0.854172  1
  Bi  Bi34  1  0.331477  0.486813  0.544236  1
  Bi  Bi35  1  0.447228  0.363936  0.145828  1
  Bi  Bi36  1  0.414599  0.185024  0.435179  1
  Au  Au37  1  0.383018  0.005744  0.382212  1
  Au  Au38  1  0.616982  0.994256  0.617788  1
  Au  Au39  1  0.383018  0.494256  0.882212  1
  Au  Au40  1  0.616982  0.505744  0.117788  1
  Br  Br41  1  0.823865  0.664952  0.485970  1
  Br  Br42  1  0.169045  0.851918  0.013678  1
  Br  Br43  1  0.505999  0.888968  0.128960  1
  Br  Br44  1  0.494001  0.388968  0.371040  1
  Br  Br45  1  0.994576  0.371142  0.875859  1
  Br  Br46  1  0.257992  0.754749  0.253841  1
  Br  Br47  1  0.978781  0.367381  0.122065  1
  Br  Br48  1  0.234157  0.248290  0.757837  1
  Br  Br49  1  0.169045  0.648082  0.513678  1
  Br  Br50  1  0.830955  0.148082  0.986322  1
  Br  Br51  1  0.494956  0.869713  0.876373  1
  Br  Br52  1  0.505999  0.611032  0.628960  1
  Br  Br53  1  0.854978  0.503810  0.679060  1
  Br  Br54  1  0.742008  0.254749  0.246159  1
  Br  Br55  1  0.257992  0.745251  0.753841  1
  Br  Br56  1  0.854978  0.996190  0.179060  1
  Br  Br57  1  0.505044  0.130287  0.123627  1
  Br  Br58  1  0.830955  0.351918  0.486322  1
  Br  Br59  1  0.765843  0.751710  0.242163  1
  Br  Br60  1  0.494956  0.630287  0.376373  1
  Br  Br61  1  0.234157  0.251710  0.257837  1
  Br  Br62  1  0.145022  0.003810  0.820940  1
  Br  Br63  1  0.823865  0.835048  0.985970  1
  Br  Br64  1  0.021219  0.632619  0.877935  1
  Br  Br65  1  0.742008  0.245251  0.746159  1
  Br  Br66  1  0.021219  0.867381  0.377935  1
  Br  Br67  1  0.994576  0.128858  0.375859  1
  Br  Br68  1  0.145022  0.496190  0.320940  1
  Br  Br69  1  0.176135  0.335048  0.514030  1
  Br  Br70  1  0.505044  0.369713  0.623627  1
  Br  Br71  1  0.978781  0.132619  0.622065  1
  Br  Br72  1  0.005424  0.628858  0.124141  1
  Br  Br73  1  0.494001  0.111032  0.871040  1
  Br  Br74  1  0.765843  0.748290  0.742163  1
  Br  Br75  1  0.005424  0.871142  0.624141  1
  Br  Br76  1  0.176135  0.164952  0.014030  1
