# generated using pymatgen
data_CsAgBr2
_symmetry_space_group_name_H-M   'P 1'
_cell_length_a   5.36992817
_cell_length_b   5.36992817
_cell_length_c   10.43071594
_cell_angle_alpha   90.00000000
_cell_angle_beta   90.00000000
_cell_angle_gamma   90.00000000
_symmetry_Int_Tables_number   1
_chemical_formula_structural   CsAgBr2
_chemical_formula_sum   'Cs2 Ag2 Br4'
_cell_volume   300.781465724
_cell_formula_units_Z   2
loop_
 _symmetry_equiv_pos_site_id
 _symmetry_equiv_pos_as_xyz
  1  'x, y, z'
loop_
 _atom_site_type_symbol
 _atom_site_label
 _atom_site_symmetry_multiplicity
 _atom_site_fract_x
 _atom_site_fract_y
 _atom_site_fract_z
 _atom_site_occupancy
  Cs  Cs1  1  0.000000  0.500000  0.706757  1
  Cs  Cs2  1  0.500000  0.000000  0.293243  1
  Ag  Ag3  1  0.000000  0.500000  0.099960  1
  Ag  Ag4  1  0.500000  0.000000  0.900040  1
  Br  Br5  1  0.500000  0.500000  0.000000  1
  Br  Br6  1  0.000000  0.500000  0.355076  1
  Br  Br7  1  0.500000  0.000000  0.644924  1
  Br  Br8  1  0.000000  0.000000  0.000000  1
