# generated using pymatgen
data_Cs2SbCl6
_symmetry_space_group_name_H-M   'P 1'
_cell_length_a   13.21463457
_cell_length_b   13.21463457
_cell_length_c   13.21463457
_cell_angle_alpha   132.03021726
_cell_angle_beta   132.03021726
_cell_angle_gamma   70.18130620
_symmetry_Int_Tables_number   1
_chemical_formula_structural   Cs2SbCl6
_chemical_formula_sum   'Cs8 Sb4 Cl24'
_cell_volume   1248.01559743
_cell_formula_units_Z   4
loop_
 _symmetry_equiv_pos_site_id
 _symmetry_equiv_pos_as_xyz
  1  'x, y, z'
loop_
 _atom_site_type_symbol
 _atom_site_label
 _atom_site_symmetry_multiplicity
 _atom_site_fract_x
 _atom_site_fract_y
 _atom_site_fract_z
 _atom_site_occupancy
  Cs  Cs1  1  0.650369  0.625000  0.525369  1
  Cs  Cs2  1  0.875000  0.349631  0.974631  1
  Cs  Cs3  1  0.099631  0.125000  0.474631  1
  Cs  Cs4  1  0.375000  0.900369  0.025369  1
  Cs  Cs5  1  0.099631  0.625000  0.974631  1
  Cs  Cs6  1  0.875000  0.900369  0.525369  1
  Cs  Cs7  1  0.375000  0.349631  0.474631  1
  Cs  Cs8  1  0.650369  0.125000  0.025369  1
  Sb  Sb9  1  0.250000  0.750000  0.500000  1
  Sb  Sb10  1  0.500000  0.500000  0.000000  1
  Sb  Sb11  1  0.750000  0.250000  0.500000  1
  Sb  Sb12  1  0.000000  0.000000  0.000000  1
  Cl  Cl13  1  0.122799  0.122799  0.000000  1
  Cl  Cl14  1  0.476584  0.749078  0.727506  1
  Cl  Cl15  1  0.872799  0.372799  0.500000  1
  Cl  Cl16  1  0.002113  0.255001  0.747113  1
  Cl  Cl17  1  0.877201  0.877201  0.000000  1
  Cl  Cl18  1  0.250922  0.978428  0.727506  1
  Cl  Cl19  1  0.273416  0.500922  0.772494  1
  Cl  Cl20  1  0.499078  0.271572  0.772494  1
  Cl  Cl21  1  0.499078  0.726584  0.227506  1
  Cl  Cl22  1  0.507888  0.255001  0.252887  1
  Cl  Cl23  1  0.005001  0.757888  0.752887  1
  Cl  Cl24  1  0.250922  0.523416  0.272494  1
  Cl  Cl25  1  0.137139  0.637139  0.500000  1
  Cl  Cl26  1  0.728428  0.500922  0.227506  1
  Cl  Cl27  1  0.242112  0.994999  0.247113  1
  Cl  Cl28  1  0.744999  0.997887  0.252887  1
  Cl  Cl29  1  0.747887  0.994999  0.752887  1
  Cl  Cl30  1  0.627201  0.127201  0.500000  1
  Cl  Cl31  1  0.387139  0.387139  0.000000  1
  Cl  Cl32  1  0.612861  0.612861  0.000000  1
  Cl  Cl33  1  0.744999  0.492112  0.747113  1
  Cl  Cl34  1  0.021572  0.749078  0.272494  1
  Cl  Cl35  1  0.005001  0.252113  0.247113  1
  Cl  Cl36  1  0.362861  0.862861  0.500000  1
