# generated using pymatgen
data_Bi
_symmetry_space_group_name_H-M   'P 1'
_cell_length_a   4.59844943
_cell_length_b   4.59844943
_cell_length_c   4.59844943
_cell_angle_alpha   90.00000000
_cell_angle_beta   90.00000000
_cell_angle_gamma   90.00000000
_symmetry_Int_Tables_number   1
_chemical_formula_structural   Bi
_chemical_formula_sum   Bi6
_cell_volume   97.2376028134
_cell_formula_units_Z   6
loop_
 _symmetry_equiv_pos_site_id
 _symmetry_equiv_pos_as_xyz
  1  'x, y, z'
loop_
 _atom_site_type_symbol
 _atom_site_label
 _atom_site_symmetry_multiplicity
 _atom_site_fract_x
 _atom_site_fract_y
 _atom_site_fract_z
 _atom_site_occupancy
  Bi  Bi1  1  0.666667  0.333333  0.098948  1
  Bi  Bi2  1  0.333333  0.666667  0.901052  1
  Bi  Bi3  1  0.333333  0.666667  0.432282  1
  Bi  Bi4  1  0.000000  0.000000  0.234385  1
  Bi  Bi5  1  0.000000  0.000000  0.765615  1
  Bi  Bi6  1  0.666667  0.333333  0.567718  1
