# generated using pymatgen
data_Cs3Sb2Br9
_symmetry_space_group_name_H-M   'P 1'
_cell_length_a   8.14134661
_cell_length_b   8.14134661
_cell_length_c   9.91258721
_cell_angle_alpha   90.00000000
_cell_angle_beta   90.00000000
_cell_angle_gamma   120.00000000
_symmetry_Int_Tables_number   1
_chemical_formula_structural   Cs3Sb2Br9
_chemical_formula_sum   'Cs3 Sb2 Br9'
_cell_volume   568.997216895
_cell_formula_units_Z   1
loop_
 _symmetry_equiv_pos_site_id
 _symmetry_equiv_pos_as_xyz
  1  'x, y, z'
loop_
 _atom_site_type_symbol
 _atom_site_label
 _atom_site_symmetry_multiplicity
 _atom_site_fract_x
 _atom_site_fract_y
 _atom_site_fract_z
 _atom_site_occupancy
  Cs  Cs1  1  0.666667  0.333333  0.322220  1
  Cs  Cs2  1  0.333333  0.666667  0.677780  1
  Cs  Cs3  1  0.000000  0.000000  0.000000  1
  Sb  Sb4  1  0.666667  0.333333  0.813338  1
  Sb  Sb5  1  0.333333  0.666667  0.186662  1
  Br  Br6  1  0.652826  0.826413  0.335224  1
  Br  Br7  1  0.826413  0.652826  0.664776  1
  Br  Br8  1  0.173587  0.826413  0.335224  1
  Br  Br9  1  0.500000  0.500000  0.000000  1
  Br  Br10  1  0.826413  0.173587  0.664776  1
  Br  Br11  1  0.347174  0.173587  0.664776  1
  Br  Br12  1  0.173587  0.347174  0.335224  1
  Br  Br13  1  0.500000  0.000000  0.000000  1
  Br  Br14  1  0.000000  0.500000  0.000000  1
