# generated using pymatgen
data_CsAuI3
_symmetry_space_group_name_H-M   'P 1'
_cell_length_a   8.65702168
_cell_length_b   8.65702168
_cell_length_c   8.65702168
_cell_angle_alpha   121.54054621
_cell_angle_beta   121.54054621
_cell_angle_gamma   87.35178395
_symmetry_Int_Tables_number   1
_chemical_formula_structural   CsAuI3
_chemical_formula_sum   'Cs2 Au2 I6'
_cell_volume   447.56312065
_cell_formula_units_Z   2
loop_
 _symmetry_equiv_pos_site_id
 _symmetry_equiv_pos_as_xyz
  1  'x, y, z'
loop_
 _atom_site_type_symbol
 _atom_site_label
 _atom_site_symmetry_multiplicity
 _atom_site_fract_x
 _atom_site_fract_y
 _atom_site_fract_z
 _atom_site_occupancy
  Cs  Cs1  1  0.750000  0.250000  0.500000  1
  Cs  Cs2  1  0.250000  0.750000  0.500000  1
  Au  Au3  1  0.500000  0.500000  0.000000  1
  Au  Au4  1  0.000000  0.000000  0.000000  1
  I  I5  1  0.226596  0.226596  0.453192  1
  I  I6  1  0.709983  0.709983  0.000000  1
  I  I7  1  0.773404  0.773404  0.546808  1
  I  I8  1  0.290017  0.290017  0.000000  1
  I  I9  1  0.226596  0.773404  0.000000  1
  I  I10  1  0.773404  0.226596  1.000000  1
