# generated using pymatgen
data_AgI2
_symmetry_space_group_name_H-M   'P 1'
_cell_length_a   4.28572833
_cell_length_b   4.28572833
_cell_length_c   6.35478126
_cell_angle_alpha   90.00000000
_cell_angle_beta   90.00000000
_cell_angle_gamma   90.00000000
_symmetry_Int_Tables_number   1
_chemical_formula_structural   AgI2
_chemical_formula_sum   'Ag1 I2'
_cell_volume   116.721237164
_cell_formula_units_Z   1
loop_
 _symmetry_equiv_pos_site_id
 _symmetry_equiv_pos_as_xyz
  1  'x, y, z'
loop_
 _atom_site_type_symbol
 _atom_site_label
 _atom_site_symmetry_multiplicity
 _atom_site_fract_x
 _atom_site_fract_y
 _atom_site_fract_z
 _atom_site_occupancy
  Ag  Ag1  1  0.500000  0.500000  0.500000  1
  I  I2  1  0.000000  0.500000  0.777762  1
  I  I3  1  0.500000  0.000000  0.222238  1
