# generated using pymatgen
data_CsCu2I3
_symmetry_space_group_name_H-M   'P 1'
_cell_length_a   8.68275692
_cell_length_b   8.68275692
_cell_length_c   6.08358897
_cell_angle_alpha   90.00000000
_cell_angle_beta   90.00000000
_cell_angle_gamma   105.61394344
_symmetry_Int_Tables_number   1
_chemical_formula_structural   CsCu2I3
_chemical_formula_sum   'Cs2 Cu4 I6'
_cell_volume   441.718126966
_cell_formula_units_Z   2
loop_
 _symmetry_equiv_pos_site_id
 _symmetry_equiv_pos_as_xyz
  1  'x, y, z'
loop_
 _atom_site_type_symbol
 _atom_site_label
 _atom_site_symmetry_multiplicity
 _atom_site_fract_x
 _atom_site_fract_y
 _atom_site_fract_z
 _atom_site_occupancy
  Cs  Cs1  1  0.672243  0.327757  0.750000  1
  Cs  Cs2  1  0.327757  0.672243  0.250000  1
  Cu  Cu3  1  0.137506  0.137506  0.000000  1
  Cu  Cu4  1  0.862494  0.862494  0.500000  1
  Cu  Cu5  1  0.862494  0.862494  0.000000  1
  Cu  Cu6  1  0.137506  0.137506  0.500000  1
  I  I7  1  0.120497  0.879503  0.750000  1
  I  I8  1  0.879503  0.120497  0.250000  1
  I  I9  1  0.839177  0.608087  0.250000  1
  I  I10  1  0.160823  0.391913  0.750000  1
  I  I11  1  0.608087  0.839177  0.750000  1
  I  I12  1  0.391913  0.160823  0.250000  1
