# generated using pymatgen
data_CsAgCl3
_symmetry_space_group_name_H-M   'P 1'
_cell_length_a   7.62166051
_cell_length_b   7.62166051
_cell_length_c   7.62166051
_cell_angle_alpha   122.22558436
_cell_angle_beta   122.22558436
_cell_angle_gamma   86.18654885
_symmetry_Int_Tables_number   1
_chemical_formula_structural   CsAgCl3
_chemical_formula_sum   'Cs2 Ag2 Cl6'
_cell_volume   301.80499418
_cell_formula_units_Z   2
loop_
 _symmetry_equiv_pos_site_id
 _symmetry_equiv_pos_as_xyz
  1  'x, y, z'
loop_
 _atom_site_type_symbol
 _atom_site_label
 _atom_site_symmetry_multiplicity
 _atom_site_fract_x
 _atom_site_fract_y
 _atom_site_fract_z
 _atom_site_occupancy
  Cs  Cs1  1  0.250000  0.750000  0.500000  1
  Cs  Cs2  1  0.750000  0.250000  0.500000  1
  Ag  Ag3  1  0.500000  0.500000  0.000000  1
  Ag  Ag4  1  0.000000  0.000000  0.000000  1
  Cl  Cl5  1  0.233236  0.233236  0.466472  1
  Cl  Cl6  1  0.766764  0.233236  0.000000  1
  Cl  Cl7  1  0.233236  0.766764  0.000000  1
  Cl  Cl8  1  0.766764  0.766764  0.533528  1
  Cl  Cl9  1  0.717730  0.717730  0.000000  1
  Cl  Cl10  1  0.282270  0.282270  0.000000  1
