# generated using pymatgen
data_Ag2Cl3
_symmetry_space_group_name_H-M   'P 1'
_cell_length_a   7.22932522
_cell_length_b   7.22932522
_cell_length_c   7.22932522
_cell_angle_alpha   55.23818221
_cell_angle_beta   55.23818221
_cell_angle_gamma   55.23818221
_symmetry_Int_Tables_number   1
_chemical_formula_structural   Ag2Cl3
_chemical_formula_sum   'Ag4 Cl6'
_cell_volume   237.593439387
_cell_formula_units_Z   2
loop_
 _symmetry_equiv_pos_site_id
 _symmetry_equiv_pos_as_xyz
  1  'x, y, z'
loop_
 _atom_site_type_symbol
 _atom_site_label
 _atom_site_symmetry_multiplicity
 _atom_site_fract_x
 _atom_site_fract_y
 _atom_site_fract_z
 _atom_site_occupancy
  Ag  Ag1  1  0.657000  0.657000  0.657000  1
  Ag  Ag2  1  0.843000  0.843000  0.843000  1
  Ag  Ag3  1  0.157000  0.157000  0.157000  1
  Ag  Ag4  1  0.343000  0.343000  0.343000  1
  Cl  Cl5  1  0.567635  0.932365  0.250000  1
  Cl  Cl6  1  0.250000  0.567635  0.932365  1
  Cl  Cl7  1  0.932365  0.250000  0.567635  1
  Cl  Cl8  1  0.067635  0.750000  0.432365  1
  Cl  Cl9  1  0.750000  0.432365  0.067635  1
  Cl  Cl10  1  0.432365  0.067635  0.750000  1
