# generated using pymatgen
data_AuCl2
_symmetry_space_group_name_H-M   'P 1'
_cell_length_a   7.15052853
_cell_length_b   7.30425434
_cell_length_c   7.35052765
_cell_angle_alpha   88.17717644
_cell_angle_beta   69.74027288
_cell_angle_gamma   86.62600016
_symmetry_Int_Tables_number   1
_chemical_formula_structural   AuCl2
_chemical_formula_sum   'Au4 Cl8'
_cell_volume   359.509995073
_cell_formula_units_Z   4
loop_
 _symmetry_equiv_pos_site_id
 _symmetry_equiv_pos_as_xyz
  1  'x, y, z'
loop_
 _atom_site_type_symbol
 _atom_site_label
 _atom_site_symmetry_multiplicity
 _atom_site_fract_x
 _atom_site_fract_y
 _atom_site_fract_z
 _atom_site_occupancy
  Au  Au1  1  0.727245  0.517119  0.461910  1
  Au  Au2  1  0.272755  0.482881  0.538090  1
  Au  Au3  1  0.622392  0.247450  0.092831  1
  Au  Au4  1  0.377608  0.752550  0.907169  1
  Cl  Cl5  1  0.822227  0.244408  0.293243  1
  Cl  Cl6  1  0.177773  0.755592  0.706757  1
  Cl  Cl7  1  0.332034  0.208495  0.374045  1
  Cl  Cl8  1  0.667966  0.791505  0.625955  1
  Cl  Cl9  1  0.427714  0.249940  0.899632  1
  Cl  Cl10  1  0.572286  0.750060  0.100368  1
  Cl  Cl11  1  0.903587  0.281959  0.821766  1
  Cl  Cl12  1  0.096413  0.718041  0.178234  1
